*HEADING
Abaqus export from ScanIP+FE
Units: Millimetres (mm)
**==============================================================================
**MATERIAL DEFINITIONS BEGIN
**==============================================================================
**==============================================================================
**MATERIAL DEFINITION BEGIN
**Part: Femur [GS=333]
**Grayscale Part Material: FEMUR_GS (0)
*SOLID SECTION, ELSET=PTGS0_FEMUR, MATERIAL=PMGS0_FEMUR_GS
*MATERIAL, NAME=PMGS0_FEMUR_GS
*ELASTIC, TYPE=ISOTROPIC
2693.89, 0.3
*DENSITY
0.454224, 
**MATERIAL DEFINITION END
**==============================================================================
**==============================================================================
**MATERIAL DEFINITION BEGIN
**Part: Femur [GS=666]
**Grayscale Part Material: FEMUR_GS (1)
*SOLID SECTION, ELSET=PTGS1_FEMUR, MATERIAL=PMGS1_FEMUR_GS
*MATERIAL, NAME=PMGS1_FEMUR_GS
*ELASTIC, TYPE=ISOTROPIC
7401.68, 0.3
*DENSITY
0.789104, 
**MATERIAL DEFINITION END
**==============================================================================
**==============================================================================
**MATERIAL DEFINITION BEGIN
**Part: Femur [GS=999]
**Grayscale Part Material: FEMUR_GS (2)
*SOLID SECTION, ELSET=PTGS2_FEMUR, MATERIAL=PMGS2_FEMUR_GS
*MATERIAL, NAME=PMGS2_FEMUR_GS
*ELASTIC, TYPE=ISOTROPIC
14140.5, 0.3
*DENSITY
1.12398, 
**MATERIAL DEFINITION END
**==============================================================================
**==============================================================================
**MATERIAL DEFINITION BEGIN
**Part: Femur [GS=1484]
**Grayscale Part Material: FEMUR_GS (3)
*SOLID SECTION, ELSET=PTGS3_FEMUR, MATERIAL=PMGS3_FEMUR_GS
*MATERIAL, NAME=PMGS3_FEMUR_GS
*ELASTIC, TYPE=ISOTROPIC
17000, 0.46
*DENSITY
1.12398, 
**MATERIAL DEFINITION END
**==============================================================================
**==============================================================================
**MATERIAL DEFINITION BEGIN
**Part: COMBINED (FROM SURFACE)_HMG
**Part Material: COMBINED (FROM SURFACE)_HMG
*SOLID SECTION, ELSET=PT_COMBINED_FROM_SURFACE, MATERIAL=PM_COMBINED_FROM_SURFACE_HMG
*MATERIAL, NAME=PM_COMBINED_FROM_SURFACE_HMG
*ELASTIC, TYPE=ISOTROPIC
105000, 0.342
*DENSITY
4.52e-09, 
**MATERIAL DEFINITION END
**==============================================================================
**==============================================================================
**MATERIAL DEFINITIONS END
**==============================================================================
**==============================================================================
**CONTACT DEFINITIONS BEGIN
**==============================================================================
**==============================================================================
**CONTACT DEFINITION BEGIN
**Contact: Femur with Combined (from surface)
*CONTACT PAIR, INTERACTION=CT_FEMUR_WITH_COMBINED_FROM_SURFACE, SMALL SLIDING
SF_COMBINED_FROM_SURFACE_WITH_FEMUR, SF_FEMUR_WITH_COMBINED_FROM_SURFACE
*SURFACE INTERACTION, NAME=CT_FEMUR_WITH_COMBINED_FROM_SURFACE
*FRICTION
0.1, 
**CONTACT DEFINITION END
**==============================================================================
**==============================================================================
**CONTACT DEFINITIONS END
**==============================================================================
**==============================================================================
**NODE DATA BEGIN
**==============================================================================
*NODE
**------------------------------------------------------------------------------
**INDEX, X COORD, Y COORD, Z COORD
**------------------------------------------------------------------------------
1, 1.060841369629e+02, -1.330779190063e+02, -2.486544189453e+02
2, 1.108419685364e+02, -1.364243621826e+02, -2.482243194580e+02
3, 1.074205894470e+02, -1.356228523254e+02, -2.461011352539e+02
4, 1.062764625549e+02, -1.370403251648e+02, -2.504285583496e+02
5, 1.088811264038e+02, -1.202305526733e+02, -2.502080230713e+02
6, 1.096151313782e+02, -1.163252792358e+02, -2.510185241699e+02
7, 1.103899879455e+02, -1.183566665649e+02, -2.530345001221e+02
8, 1.079896926880e+02, -1.174098243713e+02, -2.502127990723e+02
9, 1.104045791626e+02, -1.577194499969e+02, -3.788862152100e+02
10, 1.058951110840e+02, -1.595595541000e+02, -3.787816200256e+02
11, 1.102643356323e+02, -1.624211969376e+02, -3.823434867859e+02
12, 1.120074577331e+02, -1.642097854614e+02, -3.783027267456e+02
13, 1.143929939270e+02, -1.346887817383e+02, -2.244445190430e+02
14, 1.130788078308e+02, -1.356252403259e+02, -2.240021514893e+02
15, 1.129309616089e+02, -1.347205734253e+02, -2.244953765869e+02
16, 1.136670837402e+02, -1.359911842346e+02, -2.244372406006e+02
17, 1.124973373413e+02, -1.490045375824e+02, -3.345288848877e+02
18, 1.125996131897e+02, -1.493200664520e+02, -3.398966140747e+02
19, 1.100701446533e+02, -1.563972263336e+02, -3.363108749390e+02
20, 1.086604728699e+02, -1.521123027802e+02, -3.363959274292e+02
** ... 6211 like lines cut
**==============================================================================
**NODE DATA END
**==============================================================================
**==============================================================================
**SOLID ELEMENT DATA BEGIN
**==============================================================================
**==============================================================================
**ELEMENTS - Part: Femur BEGIN
**Part Material: FEMUR_GS
**Material ID: PM_FEMUR_GS
**Material Index: 1
**==============================================================================
**ELEMENTS - Part: Femur [GS=333] BEGIN
**Grayscale Part Material: FEMUR_GS (0)
**Material ID: PMGS0_FEMUR_GS
**Material Index: 2
**==============================================================================
**ELEMENTS (TETRAHEDRA) - Part: Femur [GS=333] BEGIN
*ELEMENT, TYPE=C3D4, ELSET=PTGS0_FEMUR
4,13,14,15,16
13,31,49,50,7
14,51,52,31,53
22,21,22,82,23
25,91,92,68,93
33,115,116,117,118
35,123,124,125,126
37,129,130,131,132
40,141,142,143,144
41,145,146,147,148
42,149,63,64,150
45,64,156,150,157
47,64,156,149,150
49,163,164,165,166
51,149,63,171,64
61,206,207,208,209
62,210,211,212,213
70,230,231,232,233
71,234,235,170,236
84,271,272,273,274
** ... 4924 like lines cut
**ELEMENTS (TETRAHEDRA) - Part: Femur [GS=333] END
**==============================================================================
**ELEMENTS - Part: Femur [GS=333] END
**==============================================================================
**==============================================================================
**ELEMENTS - Part: Femur [GS=666] BEGIN
**Grayscale Part Material: FEMUR_GS (1)
**Material ID: PMGS1_FEMUR_GS
**Material Index: 3
**==============================================================================
**ELEMENTS (TETRAHEDRA) - Part: Femur [GS=666] BEGIN
*ELEMENT, TYPE=C3D4, ELSET=PTGS1_FEMUR
6,21,22,23,24
7,25,26,27,28
8,29,30,31,32
9,33,34,35,36
11,41,42,43,44
12,45,46,47,48
15,54,55,56,57
17,62,63,64,65
20,74,75,76,77
23,83,84,85,86
24,87,88,89,90
38,133,134,135,136
44,152,153,154,155
46,105,106,158,107
52,172,173,174,175
56,187,188,189,190
57,191,192,193,194
59,187,199,200,201
65,190,201,189,187
67,223,224,225,226
** ... 3994 like lines cut
**ELEMENTS (TETRAHEDRA) - Part: Femur [GS=666] END
**==============================================================================
**ELEMENTS - Part: Femur [GS=666] END
**==============================================================================
**==============================================================================
**ELEMENTS - Part: Femur [GS=999] BEGIN
**Grayscale Part Material: FEMUR_GS (2)
**Material ID: PMGS2_FEMUR_GS
**Material Index: 4
**==============================================================================
**ELEMENTS (TETRAHEDRA) - Part: Femur [GS=999] BEGIN
*ELEMENT, TYPE=C3D4, ELSET=PTGS2_FEMUR
1,1,2,3,4
2,5,6,7,8
10,37,38,39,40
16,58,59,60,61
26,94,55,95,96
28,99,98,100,97
29,101,102,103,104
31,109,76,75,110
39,137,138,139,140
43,111,112,151,113
50,167,168,169,170
64,217,218,219,220
73,241,109,242,110
76,251,39,252,253
81,159,264,265,161
83,267,268,269,270
87,283,284,285,286
95,313,314,315,134
99,328,298,329,330
110,359,360,67,361
** ... 2624 like lines cut
**ELEMENTS (TETRAHEDRA) - Part: Femur [GS=999] END
**==============================================================================
**ELEMENTS - Part: Femur [GS=999] END
**==============================================================================
**==============================================================================
**ELEMENTS - Part: Femur [GS=1484] BEGIN
**Grayscale Part Material: FEMUR_GS (3)
**Material ID: PMGS3_FEMUR_GS
**Material Index: 5
**==============================================================================
**ELEMENTS (TETRAHEDRA) - Part: Femur [GS=1484] BEGIN
*ELEMENT, TYPE=C3D4, ELSET=PTGS3_FEMUR
3,9,10,11,12
5,17,18,19,20
18,66,67,68,69
19,70,71,72,73
21,78,79,80,81
27,68,97,98,99
30,105,106,107,108
32,111,112,113,114
34,119,120,121,122
36,127,9,11,128
48,159,160,161,162
53,176,177,178,179
54,180,181,182,183
55,68,184,185,186
58,195,196,197,198
60,202,203,204,205
63,214,215,216,83
66,221,57,83,222
69,228,229,94,58
72,237,238,239,240
** ... 2850 like lines cut
**ELEMENTS (TETRAHEDRA) - Part: Femur [GS=1484] END
**==============================================================================
**ELEMENTS - Part: Femur [GS=1484] END
**==============================================================================
**ELEMENTS - Part: Femur END
**==============================================================================
**==============================================================================
**DEFINITION OF GRAYSCALE-EXPORTED PART BEGIN
**Part: Femur
*ELSET, ELSET=PT_FEMUR
PTGS0_FEMUR,PTGS1_FEMUR,PTGS2_FEMUR,PTGS3_FEMUR,
**Part: Femur
**DEFINITION OF GRAYSCALE-EXPORTED PART END
**==============================================================================
**==============================================================================
**ELEMENTS - Part: Combined (from surface) BEGIN
**Part Material: COMBINED (FROM SURFACE)_HMG
**Material ID: PM_COMBINED_FROM_SURFACE_HMG
**Material Index: 6
**==============================================================================
**ELEMENTS (TETRAHEDRA) - Part: Combined (from surface) BEGIN
*ELEMENT, TYPE=C3D4, ELSET=PT_COMBINED_FROM_SURFACE
14473,4093,4094,4095,4096
14474,4097,4098,4099,4100
14475,4101,4102,4103,4104
14476,4105,4106,4107,4108
14477,4109,4110,4111,4112
14478,4113,4114,4115,4111
14479,4116,4117,4118,4119
14480,4116,4117,4120,4118
14481,4121,4122,4123,4124
14482,4125,4126,4127,4128
14483,4129,4130,4131,4132
14484,4133,4099,4134,4135
14485,4136,4137,4138,4139
14486,4140,4141,4142,4143
14487,4144,4145,4146,4147
14488,4148,4149,4150,4151
14489,4152,4153,4154,4155
14490,4156,4157,4158,4159
14491,4160,4161,4162,4163
14492,4164,4165,4143,4142
** ... 7250 like lines cut
**ELEMENTS (TETRAHEDRA) - Part: Combined (from surface) END
**==============================================================================
**ELEMENTS - Part: Combined (from surface) END
**==============================================================================
**==============================================================================
**SOLID ELEMENT DATA END
**==============================================================================
**==============================================================================
**SHELL ELEMENT DATA BEGIN
**==============================================================================
**==============================================================================
**SHELL ELEMENT DATA END
**==============================================================================
**==============================================================================
**CONTACT SURFACE DATA BEGIN
**==============================================================================
**==============================================================================
**CONTACT SURFACE BEGIN
**==============================================================================
**CONTACT SURFACE ELEMENTS BEGIN
**Contact: Femur with Combined (from surface)
*SURFACE, NAME=SF_FEMUR_WITH_COMBINED_FROM_SURFACE, TYPE=ELEMENT
20, S2
25, S2
38, S4
40, S4
41, S2
51, S1
62, S1
105, S4
113, S3
117, S4
120, S4
129, S4
148, S1
150, S4
216, S3
273, S1
291, S3
292, S4
302, S4
303, S4
** ... 1373 like lines cut
**CONTACT SURFACE ELEMENTS END
**==============================================================================
**CONTACT SURFACE END
**==============================================================================
**==============================================================================
**CONTACT SURFACE BEGIN
**==============================================================================
**CONTACT SURFACE ELEMENTS BEGIN
**Contact: Combined (from surface) with Femur
*SURFACE, NAME=SF_COMBINED_FROM_SURFACE_WITH_FEMUR, TYPE=ELEMENT
14481, S3
14484, S4
14489, S3
14512, S4
14518, S3
14523, S3
14528, S4
14540, S4
14548, S3
14551, S3
14552, S1
14557, S4
14560, S4
14561, S2
14562, S2
14565, S3
14566, S1
14570, S3
14581, S3
14589, S3
** ... 1373 like lines cut
**CONTACT SURFACE ELEMENTS END
**==============================================================================
**CONTACT SURFACE END
**==============================================================================
**==============================================================================
**CONTACT SURFACE DATA END
**==============================================================================
